/*---------------------------------------------------------------------------*\
| =========                 |                                                 |
| \\      /  F ield         | OpenFOAM: The Open Source CFD Toolbox           |
|  \\    /   O peration     | Version:  1.3                                   |
|   \\  /    A nd           | Web:      http://www.openfoam.org               |
|    \\/     M anipulation  |                                                 |
\*---------------------------------------------------------------------------*/
FoamFile
{
    version     2.0;
    format      ascii;
    class       dictionary;
    location    "system";
    object      boundariesDict;
}
// * * * * * * * * * * * * * * * * * * * * * * * * * * * * * * * * * * * * * //

dsmcPatchBoundaries
(
	boundary
	{
		patchBoundaryProperties
		{
			patchName			left;
		}

		boundaryModel		dsmcDiffuseWallPatch;

		dsmcDiffuseWallPatchProperties
		{
			velocity 			(0 203.826579 0);
			temperature			10;
		}
	}

	boundary
	{
		patchBoundaryProperties
		{
			patchName			right;
		}

		boundaryModel		dsmcDiffuseWallPatch;

		dsmcDiffuseWallPatchProperties
		{
			velocity 			(0 -203.826579 0);
			temperature			10;
		}
	}

);

dsmcCyclicBoundaries
(

);

dsmcGeneralBoundaries
(

);


// ************************************************************************* //
