/*--------------------------------*- C++ -*----------------------------------*\
| =========                 |                                                 |
| \\      /  F ield         | OpenFOAM: The Open Source CFD Toolbox           |
|  \\    /   O peration     | Version:  2.4.0-MNF                             |
|   \\  /    A nd           | Web:      www.OpenFOAM.org                      |
|    \\/     M anipulation  |                                                 |
\*---------------------------------------------------------------------------*/
FoamFile
{
    version     2.0;
    format      ascii;
    class       polyBoundaryMesh;
    location    "constant/polyMesh";
    object      boundary;
}
// * * * * * * * * * * * * * * * * * * * * * * * * * * * * * * * * * * * * * //

5
(
    top
    {
        type            cyclic;
        inGroups        1(cyclic);
        nFaces          800;
        startFace       799;
        matchTolerance  0.0001;
        transform       unknown;
        neighbourPatch  bottom;
    }
    bottom
    {
        type            cyclic;
        inGroups        1(cyclic);
        nFaces          800;
        startFace       1599;
        matchTolerance  0.0001;
        transform       unknown;
        neighbourPatch  top;
    }
    left
    {
        type            wall;
        inGroups        1(wall);
        nFaces          1;
        startFace       2399;
    }
    right
    {
        type            wall;
        inGroups        1(wall);
        nFaces          1;
        startFace       2400;
    }
    frontAndBack
    {
        type            empty;
        inGroups        1(empty);
        nFaces          1600;
        startFace       2401;
    }
)

// ************************************************************************* //
